#P PM6
opt(modredundant,maxcycle=100)

Gaussian input prepared by ASE

0 1
C                 0.0000300000       -2.0258700000       -0.8688700000
C                 0.0000700000       -0.7673300000       -1.4785300000
C                 0.0000200000        0.3562300000       -0.6434000000
C                -0.0000200000        0.2598300000        0.7485100000
C                -0.0000600000       -1.0183500000        1.3393000000
C                 0.0000200000       -2.1524300000        0.5188200000
C                -0.0000500000        1.5869100000        1.2602200000
C                -0.0000200000        2.4503500000        0.1885300000
N                 0.0000300000        1.6971400000       -0.9556900000
H                 0.0000800000       -2.9195700000       -1.4887400000
H                 0.0000400000       -0.6727400000       -2.5592100000
H                -0.0000900000       -1.1248600000        2.4198200000
H                 0.0000200000       -3.1409200000        0.9712300000
H                -0.0000200000        1.8753900000        2.3030600000
H                -0.0000600000        3.5309300000        0.1415700000
H                -0.0000000000        2.0652800000       -1.8966100000
C                 1.9545100000        1.9087200000       -1.1164000000
C                 1.9993500000        0.8242300000       -0.0340100000
C                 1.9999500000        1.5869100000        1.2602200000
C                 1.9994200000        2.9152800000        1.1274900000
C                 1.9889000000        3.1785900000       -0.3162900000
O                 1.9970700000        4.3072700000       -0.7824400000
C                 3.2306300000       -0.0656600000       -0.1601000000
H                 1.0194000000        1.8628100000       -1.6830100000
H                 2.8100800000        1.8714100000       -1.7967900000
H                 1.0998400000        0.2001200000       -0.0939300000
H                 1.9995200000        1.0893200000        2.2226200000
H                 2.0014400000        3.6802800000        1.8830300000
H                 4.1583300000        0.5143300000       -0.0948800000
H                 3.2284100000       -0.5912500000       -1.1209300000
H                 3.2505600000       -0.8191100000        0.6349100000

B 6 18 F

