#P UFF
force

Gaussian input prepared by ASE

0 1
C                -0.2362388132       -2.0963906586       -0.9336128057
C                -0.2933270079       -0.8138426582       -1.4822602363
C                -0.5240544101        0.3645946630       -0.6180893758
C                -0.4614871569        0.2661115233        0.7161050811
C                -0.0290218772       -1.0497397707        1.4021561054
C                -0.2824906473       -2.2645819287        0.5243333366
C                -0.0553355881        1.6413572029        1.1863541908
C                -0.2564878618        2.4662292977        0.0676864011
N                -0.3926566744        1.7300471924       -1.0441963858
H                -0.0449079323       -2.9608266184       -1.5539861586
H                -0.0774855641       -0.6866743019       -2.5304988987
H                -0.5597181231       -1.1887123666        2.3725364774
H                -0.0599031661       -3.2248773656        0.9689900519
H                -0.3017896784        2.0163470637        2.1914071483
H                -0.1010230527        3.5390718891        0.0805012396
H                -0.1085312917        2.0726025771       -1.9928083998
C                 2.2041031024       -0.7553697426        1.6509627856
C                 2.1598903510        0.5455544653        2.4687105164
C                 1.9350715866        1.5835035251        1.3732558520
C                 2.5034902197        0.9945320954        0.1300510082
C                 2.6060135425       -0.3194515418        0.2785753037
O                 2.7491970041       -1.0631282829       -0.6655188782
C                 3.3946224258        0.7771963893        3.3186771472
H                 1.1026156596       -0.9623575890        1.5368798868
H                 2.8399869065       -1.5624462669        2.0785930785
H                 1.3091198438        0.5377383334        3.1788595732
H                 2.1747838447        2.6481219503        1.5525290532
H                 2.5054055907        1.4727462978       -0.8490004889
H                 3.3376800701        1.7824730832        3.7883057970
H                 3.3768552382        0.0225800430        4.1339367950
H                 4.3226234630        0.6634915003        2.7215647928


