! NEB-TS

%neb
NEB_End_XYZFile "prod.xyz"
Nimages 6
end

*xyz 0 1
C     -0.021514 -0.692518 -0.212512
C      1.303898 -0.759307 -0.043439
H     -0.603388 -0.451518 -1.086161
H      2.106694 -0.578045 -0.737271
C      1.612043 -1.162839  1.383621
O      2.666656 -1.288184  1.922616
C     -0.709620 -1.023671  1.094353
O     -1.872877 -1.011214  1.367529
C      0.143819 -1.732791  3.360636
C      0.024399 -3.075452  3.757540
C      0.075832 -0.680441  4.291480
C     -0.145966 -3.311186  5.130407
C     -0.108422 -0.952620  5.638885
H      0.172213  0.348116  3.950313
C     -0.217044 -2.278268  6.057244
H     -0.221859 -4.333044  5.501602
H     -0.164726 -0.142579  6.362641
H     -0.355660 -2.507027  7.112528
C      0.121764 -4.260614  2.811094
C      1.609570 -4.482244  2.489046
H      2.068944 -3.597484  2.037967
H      2.184260 -4.705733  3.395388
H      1.743299 -5.314992  1.791446
C     -0.433181 -5.555295  3.443449
H     -1.473177 -5.425426  3.762423
H     -0.412282 -6.379342  2.720716
H      0.158097 -5.882753  4.304266
C     -0.678067 -4.037648  1.515102
H     -1.626416 -3.524239  1.719309
H     -0.116607 -3.460817  0.776559
H     -0.925154 -4.988288  1.028457
N      0.342814 -1.335650  2.003943
C      0.845094  2.375997  1.324534
C     -0.486714  2.334220  1.447736
H      1.622183  1.996820  1.968539
H     -1.107373  1.910250  2.219228
C     -1.123768  3.017469  0.258326
O     -2.275109  3.215038  0.016634
C      1.208062  3.092451  0.043279
O      2.285273  3.351731 -0.407113
C     -0.164864  4.259994 -1.712396
C     -0.233695  3.799631 -3.040026
C     -0.218296  5.628706 -1.400930
C     -0.364353  4.781874 -4.031662
C     -0.345891  6.570547 -2.410602
H     -0.159676  5.945391 -0.360843
C     -0.421305  6.139108 -3.732483
H     -0.427106  4.495059 -5.081657
H     -0.387826  7.630047 -2.168378
H     -0.525742  6.867064 -4.535331
C     -0.188733  2.332077 -3.433860
C     -1.468448  1.640890 -2.933168
H     -1.557296  1.666059 -1.844015
H     -2.362530  2.138703 -3.330569
H     -1.504560  0.594322 -3.251370
C     -0.133624  2.128946 -4.964124
H      0.751577  2.603103 -5.400737
H     -0.084957  1.062251 -5.211235
H     -1.025192  2.525506 -5.460447
C      1.069164  1.661051 -2.853610
H      1.935377  2.334356 -2.909988
H      0.941157  1.383226 -1.804990
H      1.328751  0.750387 -3.404151
N     -0.034515  3.392883 -0.584309
*