169
	Energy: -2383124.9480928
C          4.22414        6.03521       -2.39309
C          3.03248        6.49988       -2.84785
C          1.84469        5.73393       -2.69874
C          1.91791        4.46362       -2.06089
C          3.17460        4.00372       -1.57015
C          4.30216        4.77233       -1.74529
H          5.13851        6.60511       -2.50482
H          2.94832        7.46116       -3.33976
C          0.70253        3.72452       -1.96659
H          3.25280        3.05674       -1.04961
C         -0.43775        4.28189       -2.49349
C         -0.39647        5.55633       -3.08361
H         -1.38006        3.74714       -2.47848
H         -1.30667        5.99288       -3.48547
N          0.69865        6.26731       -3.19008
O          5.54186        4.43642       -1.34935
C          5.71373        3.21903       -0.63742
H          5.38871        2.36215       -1.23563
H          6.78058        3.14144       -0.43849
H          5.15933        3.23716        0.30384
C          0.63917        2.33397       -1.35543
H          1.64228        1.91583       -1.31009
N         -0.15264        1.45231       -2.20088
H         -1.16392        1.45990       -2.07795
C          0.08129        2.21450        0.08608
H         -0.09937        1.14438        0.20044
C         -1.19110        2.98969        0.45669
C          0.76319        1.78044        2.37239
C          1.24222        3.98464        1.42393
C         -1.11687        3.35701        1.94762
H         -1.27919        3.91245       -0.12042
H         -2.06835        2.38351        0.22904
C         -0.68154        2.14136        2.79752
H          0.87622        0.71760        2.15795
H          1.50313        2.05253        3.12339
C         -0.05275        4.45151        2.11221
H          1.41738        4.50052        0.48254
H          2.13406        4.09040        2.03974
H         -2.08724        3.71682        2.28976
H         -0.65758        2.45800        3.84388
H         -0.39505        5.38317        1.65846
H          0.12371        4.64632        3.17255
N          1.12172        2.52613        1.12236
C         -1.61242        0.96671        2.68567
H         -1.69134        0.49333        1.71040
C         -2.31232        0.46963        3.69711
H         -2.24984        0.89515        4.69514
H         -2.96831       -0.38257        3.56063
C          0.32444        0.44273       -2.93079
C         -0.09771       -1.13215       -4.82422
C          2.03853       -1.18609       -3.47920
C          1.11043       -1.95636       -4.38637
C          1.66017        0.07069       -2.98530
C         -0.71176       -0.35971       -3.66232
H         -0.85235       -1.77754       -5.28050
H          1.67762       -2.27629       -5.26541
H          2.39293        0.64507       -2.43925
H         -1.50165        0.30759       -4.01287
H          0.21390       -0.41657       -5.59122
H          0.80261       -2.88284       -3.89145
H         -1.18196       -1.02980       -2.93547
C          3.16932       -1.81719       -2.95722
C         -1.89861       -3.89995       -0.04140
C         -3.09871       -3.86573       -2.61794
C         -1.20324       -3.43068       -1.16951
C         -3.24126       -4.24495       -0.25662
C         -3.84333       -4.21891       -1.50246
C         -1.78857       -3.46692       -2.43621
H         -3.84626       -4.54763        0.58764
H         -4.88976       -4.48128       -1.60301
H         -1.19512       -3.16215       -3.28679
H         -3.53950       -3.87130       -3.60700
C         -1.34460       -4.06226        1.39204
C          0.18948       -4.15803        1.47369
H          0.58320       -4.88748        0.76094
H          0.46939       -4.49406        2.47578
H          0.68939       -3.20395        1.31387
C         -1.83044       -2.88846        2.25980
H         -2.92034       -2.80205        2.22705
H         -1.40259       -1.94445        1.91965
H         -1.53614       -3.04421        3.30278
C         -1.87833       -5.37985        1.99650
H         -1.62487       -6.23346        1.36193
H         -2.95859       -5.37434        2.14817
H         -1.41996       -5.53591        2.97645
N          0.08885       -2.82567       -1.09024
C          0.32299       -1.56719       -0.49309
C          1.30694       -3.40882       -1.42820
C          1.71584       -1.35428       -0.42035
H          2.16140       -0.48800        0.04364
C          2.35903       -2.39989       -1.07040
H          3.34960       -2.75265       -0.82403
O          1.44696       -4.50915       -1.90852
O         -0.60678       -0.85046       -0.08221
N         -5.55753        0.28217        0.47072
C         -5.13643        0.29851       -0.91002
C         -3.61408        0.20273       -1.00192
O         -3.14263       -0.74750       -0.23877
H         -5.30811       -0.52688        1.01952
H         -5.41984        1.26725       -1.32112
C         -5.75367       -0.81783       -1.74245
C         -6.83753       -2.84648       -3.32964
C         -6.70011       -1.69037       -1.21762
C         -5.35804       -0.96426       -3.07262
C         -5.89602       -1.97092       -3.86085
C         -7.23889       -2.70050       -2.00862
H         -7.03142       -1.57571       -0.19293
H         -4.62345       -0.28513       -3.49312
H         -5.58036       -2.07150       -4.89309
H         -7.97704       -3.37345       -1.58716
H         -7.25800       -3.63410       -3.94425
O         -2.95502        0.93723       -1.71411
C         -5.67088        1.46004        1.16121
O         -5.77066        1.19955        2.46782
O         -5.69457        2.55393        0.64088
C         -5.98575        2.26934        3.44507
C         -6.00003        1.51220        4.76691
H         -6.79684        0.76522        4.77247
H         -6.16859        2.20846        5.59143
H         -5.04465        1.00716        4.92620
C         -4.82951        3.26449        3.41346
H         -4.94290        3.97018        4.24042
H         -4.81199        3.81867        2.47610
H         -3.88177        2.73579        3.53617
C         -7.33191        2.93790        3.18657
H         -8.12857        2.18989        3.17033
H         -7.32728        3.47493        2.23868
H         -7.54352        3.64716        3.99055
H         -2.14212       -0.84018       -0.28036
H          2.05180        2.14470        0.80049
N          4.72747       -0.94461        1.27514
H          4.36991       -0.74136        0.35525
C          4.47362        0.04017        2.29690
C          3.95264        1.34180        1.63659
O          4.04274        2.38899        2.28045
O          3.37713        1.20772        0.50796
C          3.40033       -0.36178        3.30444
C          2.45478       -1.34101        3.01646
C          1.40679       -1.58827        3.89598
C          1.29341       -0.86260        5.07503
C          2.24961        0.10108        5.37940
C          3.29732        0.34594        4.50121
C          5.22239       -2.17445        1.54665
O          5.59219       -2.54131        2.64028
O          5.24284       -2.91681        0.41630
C          5.46615       -4.36092        0.46349
C          5.30985       -4.78607       -0.99354
C          6.87779       -4.66373        0.95647
C          4.39088       -5.01443        1.32778
H          7.00331       -4.35998        1.99396
H          7.06716       -5.73703        0.87279
H          7.61058       -4.13694        0.33970
H          5.99666       -4.22383       -1.63088
H          5.54128       -5.84920       -1.09042
H          4.28773       -4.63257       -1.34836
H          4.49235       -4.71976        2.37186
H          3.39658       -4.73049        0.97086
H          4.47946       -6.10136        1.25811
H          5.39439        0.27593        2.83419
H          4.02722        1.11560        4.72501
H          2.17974        0.66452        6.30336
H          0.47091       -1.05212        5.75536
H          0.67278       -2.34640        3.65214
H          2.52163       -1.89949        2.09015
C          4.36310       -1.05664       -2.43052
H          4.91633       -0.59357       -3.25377
H          4.07767       -0.25844       -1.73892
H          5.04453       -1.72641       -1.90206
H          3.39766       -2.79867       -3.36864
