19
	Energy:      23.2957781
O         -6.80606        3.52331        1.25916
H         -4.70139        2.29114        1.71488
N         -7.26398        2.46873        0.93548
O         -8.39933        2.41888        0.56789
O         -2.43379        1.32194        2.26668
C         -5.12667        1.34022        1.41902
C         -6.46464        1.28352        0.98678
C         -2.92191        0.25267        1.92972
C         -4.33326        0.18189        1.47253
C         -7.00207        0.03967        0.60569
H         -1.24334       -0.84088        2.27041
O         -2.16505       -0.86549        1.97640
H         -8.03024       -0.01534        0.27160
C         -4.89103       -1.04777        1.08742
C         -6.22623       -1.13393        0.65128
H         -4.28424       -1.94363        1.12670
N         -6.78488       -2.39174        0.26117
O         -7.91828       -2.46313       -0.10886
O         -6.12504       -3.38656        0.30060
