93
	Energy:     198.5616035
C          3.08830       -3.96758       -1.40792
C          2.58155       -2.76320       -2.25639
C         -0.63482       -6.87929       -1.93990
C         -0.35812       -5.71843       -1.33915
C          0.54822       -0.95128        2.74945
C         -1.36943       -2.31824        2.10211
C         -1.68191       -2.43969        3.48215
C          0.18903       -1.11521        4.08504
C         -2.19996       -3.01783        1.18318
C         -3.31103       -3.77525        1.61592
C         -3.59069       -3.84709        2.97860
O         -4.13085       -4.46047        0.77057
N         -0.90701       -1.83612        4.41676
C         -4.19164       -4.37145       -0.60652
C          0.16543       -1.26139        0.24796
C          1.27544       -2.21217       -0.28759
C          0.25396       -3.39478       -2.18932
C          1.32051       -3.63970        0.35102
C          1.86449       -4.62876       -0.71578
C          0.77249       -4.81808       -1.79890
C         -0.22681       -1.52353        1.72258
N          1.23936       -2.33939       -1.78345
C         -2.78507       -3.19014        3.90392
N          0.55921        0.15037       -0.02595
C         -0.50848        1.06000        0.38804
C         -1.39636        1.45814       -0.78192
C         -2.70037        1.97115       -0.18301
C         -2.45358        3.20520        0.71370
C         -1.30764        2.96577        1.74064
C         -0.05631        2.34631        1.10070
C         -3.74702        3.53853        1.43802
C         -4.43620        4.73570        1.18410
C         -5.63680        5.01195        1.85178
C         -6.15413        4.10265        2.77988
C         -5.47836        2.91175        3.04004
C         -4.28894        2.62749        2.37281
H          3.65170       -4.66105       -2.06832
H          3.77931       -3.62505       -0.60697
H          2.49031       -3.06917       -3.32521
H          3.32225       -1.93462       -2.23364
H         -1.44776       -7.49786       -1.57191
H         -0.05840       -7.22644       -2.79105
H         -0.96569       -5.42913       -0.48786
H          1.42394       -0.35892        2.53249
H          0.78120       -0.65857        4.86626
H         -1.99742       -3.01109        0.13427
H         -4.43974       -4.42517        3.32315
H         -4.91931       -5.11704       -0.98582
H         -4.57705       -3.38179       -0.90923
H         -3.20577       -4.57287       -1.07180
H         -0.73000       -1.45778       -0.35282
H          2.24487       -1.74286        0.00512
H          0.01757       -3.36568       -3.27565
H         -0.70609       -3.19747       -1.67935
H          0.32485       -3.99963        0.66783
H          1.95302       -3.60041        1.26466
H          2.15125       -5.59882       -0.25518
H          1.27870       -5.28831       -2.67331
H         -3.02030       -3.27203        4.95783
H         -0.90614        2.21725       -1.43172
H         -1.58717        0.58637       -1.41142
H         -3.13605        1.13963        0.41161
H         -3.42000        2.22748       -0.99096
H         -2.13799        4.03365        0.03903
H         -1.63312        2.24093        2.51426
H         -1.05314        3.91799        2.25531
H          0.67421        2.11944        1.90586
H          0.42324        3.04748        0.38059
H         -4.05364        5.44892        0.46550
H         -6.16978        5.93112        1.64979
H         -7.07998        4.31674        3.29714
H         -5.87447        2.20327        3.75681
H         -3.79389        1.69031        2.59252
C         -3.40324       -1.05325       -1.84579
O         -2.40973       -1.43399       -2.44525
O         -3.52234       -1.29248       -0.53095
C         -4.43085       -0.25094       -2.51384
C         -4.18477        0.33507       -3.75949
C         -5.66496       -0.06174       -1.88301
C         -5.16570        1.12416       -4.38183
H         -3.21960        0.19482       -4.23218
C         -6.67399        0.69488       -2.49223
H         -5.84770       -0.52245       -0.91918
C         -6.41153        1.28982       -3.74182
H         -7.17876        1.88570       -4.21627
N         -7.94160        0.85053       -1.85039
O         -8.15679        0.33012       -0.79769
O         -8.81159        1.47989       -2.37437
N         -4.89667        1.75028       -5.63783
O         -5.72609        2.43060       -6.16432
O         -3.83059        1.62806       -6.16062
H          0.98695       -1.42790       -2.23381
H          1.45212        0.38082        0.46623
